!-Generator IDFEditor 1.31
!-Option SortedOrder

!-NOTE: All comments with '!-' are ignored by the IDFEditor and are generated automatically.
!-      Use '!' comments if they need to be retained when using the IDFEditor.


!-   ===========  ALL OBJECTS IN CLASS: VERSION ===========

! Based on DOE Commercial Building Benchmark
! Small and large office, new construction
! Benchmark V 2.0
! EnergyPlus V 2.2
!
! Description:  Single story, one zone office building.
! Form:         Area = 511 m2 (5,503 ft2); Number of Stories = 1; Shape = rectangle, Aspect ratio = 1.5
! Envelope:     Envelope thermal properties vary with climate according to ASHRAE Standard 90.1-2004.
!               Opaque constructions: mass walls; attic roof; slab-on-grade floor
!               Windows: window-to-wall ratio = 18%, equal distribution of windows
!               Infiltration = 0.3 ACH (fans off), 0.15 ACH (fans on)
! HVAC:         changed from 
!                            PSZ-AC, gas furnace
!                            No economizer
!               to
! HVAC:         VAV with reheat and economizer
!
! Int. gains:   lights = 10.76 W/m2 (1.0 W/ft2);
!               elec. plug loads = 8.07 W/m2 (0.75 W/ft2)
!               gas plug load = 0 W/m2 (0 W/ft2)
!               people = 20 total; 3.91/100 m2 (3.63/1000 ft2)
!
! Detached Shading:               None
! Daylight:                       None
! Natural Ventilation:            None
! Zonal Equipment:                None
! Air Primary Loops:              Yes
! Plant Loops:                    HeatSys1 
! System Equipment Autosize:      No
! Purchased Cooling:              None
! Purchased Heating:              None
! Coils:                          COIL:WATER:COOLING; COIL:GAS:HEATING
! Pumps:                          Some
! Boilers:                        BOILER:SIMPLE
! Chillers:                       CHILLER:ELECTRIC:EIR
!
! Generated by EPXMLPreproc2 (Windows 32 Version 0.1.1.8)
! Created on 04/29/2008 00:18:22
! Modified on 08/22/2008
!
!***** NOTICE *****
!***** The Benchmarks were prepared as an account of work sponsored by an *****
!***** agency of the United States government. Neither the United States *****
!***** government nor any agency thereof, nor any of their employees, makes *****
!***** any warranty, express or implied, or assumes any legal liability or *****
!***** responsibility for the accuracy, completeness, or usefulness of any *****
!***** information, apparatus, product, or process disclosed, or represents *****
!***** that its use would not infringe privately owned rights. Reference *****
!***** herein to any specific commercial product, process, or service by *****
!***** trade name, trademark, manufacturer, or otherwise does not necessarily *****
!***** constitute or imply its endorsement, recommendation, or favoring by *****
!***** the United States government or any agency thereof. The views and *****
!***** opinions of authors expressed herein do not necessarily state or *****
!***** reflect those of the United States government or any agency thereof. *****
!***** Access to and use of the Benchmarks imposes the following obligations *****
!***** on the user. The user agrees to credit DOE, NREL, PNNL, and LBNL in *****
!***** any publication(s) that that result from the use of Benchmarks. *****
!***** However, the names of DOE/NREL/PNNL/LBNL may not be used in any *****
!***** advertising or publicity that implies endorsement or promotion of any *****
!***** products, services or commercial entities. *****
! Reference citation for the Commercial Building Benchmarks:
! ---------------------- 2007. Commercial Building Benchmarks. Washington, DC:
! U S Department of Energy, Energy Efficiency and Renewable Energy, Office of
! Building Technologies.
! Start SimMetaData
! WeatherFileName=USA_FL_Miami_TMY2.epw
! CodeStandard=ASHRAE 90.1-2004
! Std62Version=2004
! RoofConstruction=Insulation Entirely Above Deck
! ExtWallConstruction=Mass
! End SimMetaData
VERSION,
    2.2.0;                   !- Version Identifier


!-   ===========  ALL OBJECTS IN CLASS: BUILDING ===========

BUILDING,
    Benchmark Small Office New,  !- Building Name
    0.0000,                  !- North Axis {deg}
    City,                    !- Terrain
    0.0400,                  !- Loads Convergence Tolerance Value
    0.2000,                  !- Temperature Convergence Tolerance Value {deltaC}
    FullInteriorAndExterior, !- Solar Distribution
    25;                      !- Maximum Number of Warmup Days


!-   ===========  ALL OBJECTS IN CLASS: TIMESTEP IN HOUR ===========

TIMESTEP IN HOUR,
    6;                       !- Time Step in Hour


!-   ===========  ALL OBJECTS IN CLASS: SYSTEM CONVERGENCE LIMITS ===========

System Convergence Limits,
    1,                       !- Minimum System Time Step {minutes}
    20;                      !- Maximum HVAC Iterations


!-   ===========  ALL OBJECTS IN CLASS: INSIDE CONVECTION ALGORITHM ===========

INSIDE CONVECTION ALGORITHM,
    Detailed;                !- Algorithm


!-   ===========  ALL OBJECTS IN CLASS: OUTSIDE CONVECTION ALGORITHM ===========

OUTSIDE CONVECTION ALGORITHM,
    Detailed;                !- Algorithm


!-   ===========  ALL OBJECTS IN CLASS: SOLUTION ALGORITHM ===========

SOLUTION ALGORITHM,
    CTF;                     !- SolutionAlgo


!-   ===========  ALL OBJECTS IN CLASS: SHADOWING CALCULATIONS ===========

SHADOWING CALCULATIONS,
    30;                      !- PeriodForCalculations


!-   ===========  ALL OBJECTS IN CLASS: RUN CONTROL ===========

RUN CONTROL,
    Yes,                     !- Do the zone sizing calculation
    Yes,                     !- Do the system sizing calculation
    Yes,                     !- Do the plant sizing calculation
    No,                      !- Do the design day simulations
    Yes;                     !- Do the weather file simulation


!-   ===========  ALL OBJECTS IN CLASS: RUNPERIOD ===========

RunPeriod,
    1,                       !- Begin Month
    1,                       !- Begin Day Of Month
    12,                      !- End Month
    31,                      !- End Day Of Month
    Sunday,                  !- Day Of Week For Start Day
    No,                      !- Use WeatherFile Holidays/Special Days
    No,                      !- Use WeatherFile DaylightSavingPeriod
    No,                      !- Apply Weekend Holiday Rule
    Yes,                     !- Use WeatherFile Rain Indicators
    Yes;                     !- Use WeatherFile Snow Indicators


!-   ===========  ALL OBJECTS IN CLASS: SPECIALDAYPERIOD ===========

! US National Holidays
SpecialDayPeriod,
    New Years Day,           !- Holiday Name
    January 1,               !- StartDate
    1,                       !- duration (number of days)
    Holiday;                 !- SpecialDayType

SpecialDayPeriod,
    Veterans Day,            !- Holiday Name
    November 11,             !- StartDate
    1,                       !- duration (number of days)
    Holiday;                 !- SpecialDayType

SpecialDayPeriod,
    Christmas,               !- Holiday Name
    December 25,             !- StartDate
    1,                       !- duration (number of days)
    Holiday;                 !- SpecialDayType

SpecialDayPeriod,
    Independence Day,        !- Holiday Name
    July 4,                  !- StartDate
    1,                       !- duration (number of days)
    Holiday;                 !- SpecialDayType

SpecialDayPeriod,
    MLK Day,                 !- Holiday Name
    3rd Monday in January,   !- StartDate
    1,                       !- duration (number of days)
    Holiday;                 !- SpecialDayType

SpecialDayPeriod,
    Presidents Day,          !- Holiday Name
    3rd Monday in February,  !- StartDate
    1,                       !- duration (number of days)
    Holiday;                 !- SpecialDayType

SpecialDayPeriod,
    Memorial Day,            !- Holiday Name
    Last Monday in May,      !- StartDate
    1,                       !- duration (number of days)
    Holiday;                 !- SpecialDayType

SpecialDayPeriod,
    Labor Day,               !- Holiday Name
    1st Monday in September, !- StartDate
    1,                       !- duration (number of days)
    Holiday;                 !- SpecialDayType

SpecialDayPeriod,
    Columbus Day,            !- Holiday Name
    2nd Monday in October,   !- StartDate
    1,                       !- duration (number of days)
    Holiday;                 !- SpecialDayType

SpecialDayPeriod,
    Thanksgiving,            !- Holiday Name
    4th Thursday in November,!- StartDate
    1,                       !- duration (number of days)
    Holiday;                 !- SpecialDayType


!-   ===========  ALL OBJECTS IN CLASS: DAYLIGHTSAVINGPERIOD ===========

! Daylight Saving Period in US
DaylightSavingPeriod,
    2nd Sunday in March,     !- StartDate
    1st Sunday in November;  !- EndDate


!-   ===========  ALL OBJECTS IN CLASS: LOCATION ===========

Location,
    MIAMI_FL_USA TMY2-12839, !- LocationName
    25.80000,                !- Latitude {deg}
    -80.27000,               !- Longitude {deg}
    -5.000000,               !- TimeZone {hr}
    2.000000;                !- Elevation {m}


!-   ===========  ALL OBJECTS IN CLASS: DESIGNDAY ===========

! MIAMI_FL_USA Annual Heating 99.6%, MaxDB=8°C
DesignDay,
    MIAMI Ann Htg 99.6% Condns DB,  !- DesignDayName
    8,                       !- Maximum Dry-Bulb Temperature {C}
    0.0,                     !- Daily Temperature Range {deltaC}
    8,                       !- Humidity Indicating Conditions at Max Dry-Bulb
    101301.,                 !- Barometric Pressure {Pa}
    4.4,                     !- Wind Speed {m/s}
    340,                     !- Wind Direction {deg}
    0.00,                    !- Sky Clearness
    0,                       !- Rain Indicator
    0,                       !- Snow Indicator
    21,                      !- Day Of Month
    1,                       !- Month
    WinterDesignDay,         !- Day Type
    0,                       !- Daylight Saving Time Indicator
    Wet-Bulb;                !- Humidity Indicating Type

! MIAMI_FL_USA Annual Cooling (DB=>MWB) .4%, MaxDB=33.1°C MWB=25.3°C
DesignDay,
    MIAMI Ann Clg .4% Condns DB=>MWB,  !- DesignDayName
    33.1,                    !- Maximum Dry-Bulb Temperature {C}
    6.7,                     !- Daily Temperature Range {deltaC}
    25.3,                    !- Humidity Indicating Conditions at Max Dry-Bulb
    101301.,                 !- Barometric Pressure {Pa}
    4.7,                     !- Wind Speed {m/s}
    140,                     !- Wind Direction {deg}
    1.00,                    !- Sky Clearness
    0,                       !- Rain Indicator
    0,                       !- Snow Indicator
    21,                      !- Day Of Month
    7,                       !- Month
    SummerDesignDay,         !- Day Type
    0,                       !- Daylight Saving Time Indicator
    Wet-Bulb;                !- Humidity Indicating Type


!-   ===========  ALL OBJECTS IN CLASS: GROUNDTEMPERATURES ===========

! 1000m2-Setpoints.idf
GroundTemperatures,
    22.18,                   !- January Ground Temperature {C}
    22.21,                   !- February Ground Temperature {C}
    22.24,                   !- March Ground Temperature {C}
    22.25,                   !- April Ground Temperature {C}
    22.31,                   !- May Ground Temperature {C}
    22.36,                   !- June Ground Temperature {C}
    22.40,                   !- July Ground Temperature {C}
    22.43,                   !- August Ground Temperature {C}
    22.46,                   !- September Ground Temperature {C}
    22.49,                   !- October Ground Temperature {C}
    22.48,                   !- November Ground Temperature {C}
    22.48;                   !- December Ground Temperature {C}


!-   ===========  ALL OBJECTS IN CLASS: WATER MAINS TEMPERATURES ===========

! Daily Avg, 20.0, 20.8, 21.6, 24.5, 25.8, 27.3, 28.0, 27.9, 26.9, 25.1, 23.2, 20.6
WATER MAINS TEMPERATURES,
    CORRELATION,             !- Calculation Method
    ,                        !- Schedule Name
    24.31,                   !- Annual Average Outdoor Air Temperature {C}
    8.00;                    !- Maximum Difference In Monthly Average Outdoor Air Temperatures {deltaC}


!-   ===========  ALL OBJECTS IN CLASS: MATERIAL:REGULAR ===========

MATERIAL:REGULAR,
    Roof Membrane,           !- Name
    VeryRough,               !- Roughness
    0.0095,                  !- Thickness {m}
    0.1600,                  !- Conductivity {W/m-K}
    1121.2900,               !- Density {kg/m3}
    1460.0000,               !- Specific Heat {J/kg-K}
    0.9000,                  !- Absorptance:Thermal
    0.7000,                  !- Absorptance:Solar
    0.7000;                  !- Absorptance:Visible

MATERIAL:REGULAR,
    Roof Insulation,         !- Name
    MediumRough,             !- Roughness
    0.1250,                  !- Thickness {m}
    0.0490,                  !- Conductivity {W/m-K}
    265.0000,                !- Density {kg/m3}
    836.8000,                !- Specific Heat {J/kg-K}
    0.9000,                  !- Absorptance:Thermal
    0.7000,                  !- Absorptance:Solar
    0.7000;                  !- Absorptance:Visible

MATERIAL:REGULAR,
    Metal Decking,           !- Name
    MediumSmooth,            !- Roughness
    0.0015,                  !- Thickness {m}
    45.0060,                 !- Conductivity {W/m-K}
    7680.0000,               !- Density {kg/m3}
    418.4000,                !- Specific Heat {J/kg-K}
    0.9000,                  !- Absorptance:Thermal
    0.7000,                  !- Absorptance:Solar
    0.3000;                  !- Absorptance:Visible

MATERIAL:REGULAR,
    GP01 1/2 GYPSUM,         !- Name
    Smooth,                  !- Roughness
    0.0127,                  !- Thickness {m}
    0.1600,                  !- Conductivity {W/m-K}
    800.0000,                !- Density {kg/m3}
    1090.0000,               !- Specific Heat {J/kg-K}
    0.9000,                  !- Absorptance:Thermal
    0.7000,                  !- Absorptance:Solar
    0.5000;                  !- Absorptance:Visible

MATERIAL:REGULAR,
    1IN Stucco,              !- Name
    Smooth,                  !- Roughness
    0.0253,                  !- Thickness {m}
    0.6918,                  !- Conductivity {W/m-K}
    1858.0000,               !- Density {kg/m3}
    837.0000,                !- Specific Heat {J/kg-K}
    0.9000,                  !- Absorptance:Thermal
    0.9200,                  !- Absorptance:Solar
    0.9200;                  !- Absorptance:Visible

MATERIAL:REGULAR,
    8IN Concrete HW,         !- Name
    MediumRough,             !- Roughness
    0.2033,                  !- Thickness {m}
    1.7296,                  !- Conductivity {W/m-K}
    2243.0000,               !- Density {kg/m3}
    837.0000,                !- Specific Heat {J/kg-K}
    0.9000,                  !- Absorptance:Thermal
    0.6500,                  !- Absorptance:Solar
    0.6500;                  !- Absorptance:Visible

MATERIAL:REGULAR,
    1/2IN Gypsum,            !- Name
    Smooth,                  !- Roughness
    0.0127,                  !- Thickness {m}
    0.1600,                  !- Conductivity {W/m-K}
    784.9000,                !- Density {kg/m3}
    830.0000,                !- Specific Heat {J/kg-K}
    0.9000,                  !- Absorptance:Thermal
    0.9200,                  !- Absorptance:Solar
    0.9200;                  !- Absorptance:Visible

MATERIAL:REGULAR,
    MAT-CC05 8 HW CONCRETE,  !- Name
    Rough,                   !- Roughness
    0.2032,                  !- Thickness {m}
    1.3110,                  !- Conductivity {W/m-K}
    2240.0000,               !- Density {kg/m3}
    836.8000,                !- Specific Heat {J/kg-K}
    0.9000,                  !- Absorptance:Thermal
    0.7000,                  !- Absorptance:Solar
    0.7000;                  !- Absorptance:Visible

MATERIAL:REGULAR,
    Floor Insulation,        !- Name
    MediumRough,             !- Roughness
    0.0002,                  !- Thickness {m}
    0.0450,                  !- Conductivity {W/m-K}
    265.0000,                !- Density {kg/m3}
    836.8000,                !- Specific Heat {J/kg-K}
    0.9000,                  !- Absorptance:Thermal
    0.7000,                  !- Absorptance:Solar
    0.7000;                  !- Absorptance:Visible

MATERIAL:REGULAR,
    1/2IN Gypsum Top,        !- Name
    Smooth,                  !- Roughness
    0.0127,                  !- Thickness {m}
    0.1600,                  !- Conductivity {W/m-K}
    784.9000,                !- Density {kg/m3}
    830.0000,                !- Specific Heat {J/kg-K}
    0.9000,                  !- Absorptance:Thermal
    0.9200,                  !- Absorptance:Solar
    0.9200;                  !- Absorptance:Visible

MATERIAL:REGULAR,
    AtticFloor Insulation,   !- Name
    MediumRough,             !- Roughness
    0.2379,                  !- Thickness {m}
    0.0490,                  !- Conductivity {W/m-K}
    265.0000,                !- Density {kg/m3}
    836.8000,                !- Specific Heat {J/kg-K}
    0.9000,                  !- Absorptance:Thermal
    0.7000,                  !- Absorptance:Solar
    0.7000;                  !- Absorptance:Visible

MATERIAL:REGULAR,
    1/2IN Gypsum Bottom,     !- Name
    Smooth,                  !- Roughness
    0.0127,                  !- Thickness {m}
    0.1600,                  !- Conductivity {W/m-K}
    784.9000,                !- Density {kg/m3}
    830.0000,                !- Specific Heat {J/kg-K}
    0.9000,                  !- Absorptance:Thermal
    0.9200,                  !- Absorptance:Solar
    0.9200;                  !- Absorptance:Visible

MATERIAL:REGULAR,
    Std Wood 6inch,          !- Name
    MediumSmooth,            !- Roughness
    0.15,                    !- Thickness {m}
    0.12,                    !- Conductivity {W/m-K}
    540.0000,                !- Density {kg/m3}
    1210,                    !- Specific Heat {J/kg-K}
    0.9000000,               !- Absorptance:Thermal
    0.7000000,               !- Absorptance:Solar
    0.7000000;               !- Absorptance:Visible

MATERIAL:REGULAR,
    Std 1.5  MW CONCRETE,    !- Name
    Rough,                   !- Roughness
    0.038,                   !- Thickness {m}
    0.858,                   !- Conductivity {W/m-K}
    1968,                    !- Density {kg/m3}
    836.8,                   !- Specific Heat {J/kg-K}
    0.9,                     !- Absorptance:Thermal
    0.7,                     !- Absorptance:Solar
    0.7;                     !- Absorptance:Visible

MATERIAL:REGULAR,
    Std AC02,                !- Name
    MediumSmooth,            !- Roughness
    1.2700000E-02,           !- Thickness {m}
    5.7000000E-02,           !- Conductivity {W/m-K}
    288.0000,                !- Density {kg/m3}
    1339.000,                !- Specific Heat {J/kg-K}
    0.9000000,               !- Absorptance:Thermal
    0.7000000,               !- Absorptance:Solar
    0.2000000;               !- Absorptance:Visible

MATERIAL:REGULAR,
    Std MAT-CC05 4  MW CONCRETE,  !- Name
    Rough,                   !- Roughness
    0.1000,                  !- Thickness {m}
    0.858,                   !- Conductivity {W/m-K}
    1968,                    !- Density {kg/m3}
    836.8,                   !- Specific Heat {J/kg-K}
    0.9,                     !- Absorptance:Thermal
    0.7,                     !- Absorptance:Solar
    0.2;                     !- Absorptance:Visible

MATERIAL:REGULAR,
    Std Very High Reflectivity Surface,  !- Name
    Smooth,                  !- Roughness
    0.0005,                  !- Thickness {m}
    237,                     !- Conductivity {W/m-K}
    2702,                    !- Density {kg/m3}
    903,                     !- Specific Heat {J/kg-K}
    0.90,                    !- Absorptance:Thermal
    0.05,                    !- Absorptance:Solar
    0.05;                    !- Absorptance:Visible

! Plywood3/4 in
MATERIAL:REGULAR,
    Std PW05,                !- Name
    MediumSmooth,            !- Roughness
    1.9099999E-02,           !- Thickness {m}
    0.1150000,               !- Conductivity {W/m-K}
    545.0000,                !- Density {kg/m3}
    1213.000,                !- Specific Heat {J/kg-K}
    0.9000000,               !- Absorptance:Thermal
    0.7800000,               !- Absorptance:Solar
    0.7800000;               !- Absorptance:Visible

! Steel roof - regular brown
MATERIAL:REGULAR,
    Std Steel_Brown_Regular, !- Name
    Smooth,                  !- Roughness
    1.5000000E-03,           !- Thickness {m}
    44.96960,                !- Conductivity {W/m-K}
    7689.000,                !- Density {kg/m3}
    418.0000,                !- Specific Heat {J/kg-K}
    0.9000000,               !- Absorptance:Thermal
    0.9200000,               !- Absorptance:Solar
    0.92000000;              !- Absorptance:Visible

! Steel roof - cool brown
MATERIAL:REGULAR,
    Std Steel_Brown_Cool,    !- Name
    Smooth,                  !- Roughness
    1.5000000E-03,           !- Thickness {m}
    44.96960,                !- Conductivity {W/m-K}
    7689.000,                !- Density {kg/m3}
    418.0000,                !- Specific Heat {J/kg-K}
    0.9000000,               !- Absorptance:Thermal
    0.7300000,               !- Absorptance:Solar
    0.73000000;              !- Absorptance:Visible


!-   ===========  ALL OBJECTS IN CLASS: MATERIAL:REGULAR-R ===========

MATERIAL:REGULAR-R,
    CP02 CARPET PAD,         !- Name
    VeryRough,               !- Roughness
    0.2165,                  !- Thermal Resistance {m2-K/W}
    0.9000,                  !- Absorptance:Thermal
    0.7000,                  !- Absorptance:Solar
    0.8000;                  !- Absorptance:Visible

MATERIAL:REGULAR-R,
    Std CP02 CARPET PAD,     !- Name
    VeryRough,               !- Roughness
    0.21648,                 !- Thermal Resistance {m2-K/W}
    0.9,                     !- Absorptance:Thermal
    0.7,                     !- Absorptance:Solar
    0.8;                     !- Absorptance:Visible

! Name
! Roughness
! Thermal Resistance
! Absorptance:Thermal --
! Absorptance:Solar
MATERIAL:REGULAR-R,
    MAT-AIR-WALL,            !- Name
    Rough,                   !- Roughness
    0.2079491,               !- Thermal Resistance {m2-K/W}
    0.9,                     !- Absorptance:Thermal
    0.7;                     !- Absorptance:Solar

MATERIAL:REGULAR-R,
    Std Opaque Door panel_con,  !- Name
    MediumRough,             !- Roughness
    0.12327,                 !- Thermal Resistance {m2-K/W}
    0.9,                     !- Absorptance:Thermal
    0.7,                     !- Absorptance:Solar
    0.7;                     !- Absorptance:Visible

MATERIAL:REGULAR-R,
    Std Opaque Door panel_semi,  !- Name
    MediumRough,             !- Roughness
    0.12327,                 !- Thermal Resistance {m2-K/W}
    0.9,                     !- Absorptance:Thermal
    0.7,                     !- Absorptance:Solar
    0.7;                     !- Absorptance:Visible

MATERIAL:REGULAR-R,
    Std Overhead Door Panel, !- Name
    MediumRough,             !- Roughness
    0.255345,                !- Thermal Resistance {m2-K/W}
    0.9,                     !- Absorptance:Thermal
    0.7,                     !- Absorptance:Solar
    0.7;                     !- Absorptance:Visible


!-   ===========  ALL OBJECTS IN CLASS: MATERIAL:WINDOWGLASS ===========

MATERIAL:WINDOWGLASS,
    Theoretical Glass [63],  !- Name
    SpectralAverage,         !- Optical Data Type
    ,                        !- Name of Window Glass Spectral Data Set
    0.0030,                  !- Thickness {m}
    0.2362,                  !- Solar Transmittance at Normal Incidence
    0.7138,                  !- Solar Reflectance at Normal Incidence: Front Side
    0.7138,                  !- Solar Reflectance at Normal Incidence: Back Side
    0.2514,                  !- Visible Transmittance at Normal Incidence
    0.6986,                  !- Visible Reflectance at Normal Incidence: Front Side
    0.6986,                  !- Visible Reflectance at Normal Incidence: Back Side
    0.0000,                  !- IR Transmittance at Normal Incidence
    0.9990,                  !- IR Hemispherical Emissivity: Front Side
    0.9990,                  !- IR Hemispherical Emissivity: Back Side
    100.2820;                !- Conductivity {W/m-K}

MATERIAL:WINDOWGLASS,
    Theoretical Glass [64],  !- Name
    SpectralAverage,         !- Optical Data Type
    ,                        !- Name of Window Glass Spectral Data Set
    0.0030,                  !- Thickness {m}
    0.5926,                  !- Solar Transmittance at Normal Incidence
    0.3574,                  !- Solar Reflectance at Normal Incidence: Front Side
    0.3574,                  !- Solar Reflectance at Normal Incidence: Back Side
    0.6078,                  !- Visible Transmittance at Normal Incidence
    0.3422,                  !- Visible Reflectance at Normal Incidence: Front Side
    0.3422,                  !- Visible Reflectance at Normal Incidence: Back Side
    0.0000,                  !- IR Transmittance at Normal Incidence
    0.9990,                  !- IR Hemispherical Emissivity: Front Side
    0.9990,                  !- IR Hemispherical Emissivity: Back Side
    100.3760;                !- Conductivity {W/m-K}

MATERIAL:WINDOWGLASS,
    Theoretical Glass [68],  !- Name
    SpectralAverage,         !- Optical Data Type
    ,                        !- Name of Window Glass Spectral Data Set
    0.0030,                  !- Thickness {m}
    0.3469,                  !- Solar Transmittance at Normal Incidence
    0.6031,                  !- Solar Reflectance at Normal Incidence: Front Side
    0.6031,                  !- Solar Reflectance at Normal Incidence: Back Side
    0.4573,                  !- Visible Transmittance at Normal Incidence
    0.4927,                  !- Visible Reflectance at Normal Incidence: Front Side
    0.4927,                  !- Visible Reflectance at Normal Incidence: Back Side
    0.0000,                  !- IR Transmittance at Normal Incidence
    0.9990,                  !- IR Hemispherical Emissivity: Front Side
    0.9990,                  !- IR Hemispherical Emissivity: Back Side
    2.1351;                  !- Conductivity {W/m-K}

MATERIAL:WINDOWGLASS,
    Std Clear Acrylic Plastic,  !- Name
    SpectralAverage,         !- Optical Data Type
    ,                        !- Name of Window Glass Spectral Data Set
    0.003,                   !- Thickness {m}
    0.92,                    !- Solar Transmittance at Normal Incidence
    0.05,                    !- Solar Reflectance at Normal Incidence: Front Side
    0.05,                    !- Solar Reflectance at Normal Incidence: Back Side
    0.92,                    !- Visible Transmittance at Normal Incidence
    0.05,                    !- Visible Reflectance at Normal Incidence: Front Side
    0.05,                    !- Visible Reflectance at Normal Incidence: Back Side
    0.00,                    !- IR Transmittance at Normal Incidence
    0.90,                    !- IR Hemispherical Emissivity: Front Side
    0.90,                    !- IR Hemispherical Emissivity: Back Side
    0.90;                    !- Conductivity {W/m-K}

MATERIAL:WINDOWGLASS,
    Std Diffusing Acrylic Plastic,  !- Name
    SpectralAverage,         !- Optical Data Type
    ,                        !- Name of Window Glass Spectral Data Set
    0.0022,                  !- Thickness {m}
    0.90,                    !- Solar Transmittance at Normal Incidence
    0.08,                    !- Solar Reflectance at Normal Incidence: Front Side
    0.08,                    !- Solar Reflectance at Normal Incidence: Back Side
    0.90,                    !- Visible Transmittance at Normal Incidence
    0.08,                    !- Visible Reflectance at Normal Incidence: Front Side
    0.08,                    !- Visible Reflectance at Normal Incidence: Back Side
    0.00,                    !- IR Transmittance at Normal Incidence
    0.90,                    !- IR Hemispherical Emissivity: Front Side
    0.90,                    !- IR Hemispherical Emissivity: Back Side
    0.90;                    !- Conductivity {W/m-K}


!-   ===========  ALL OBJECTS IN CLASS: CONSTRUCTION ===========

CONSTRUCTION,
    InteriorFurnishings,     !- Name
    Std Wood 6inch;          !- Outside Layer

CONSTRUCTION,
    INT-FLOOR-TOPSIDE,       !- Name
    Std MAT-CC05 4  MW CONCRETE,  !- Outside Layer
    Std CP02 CARPET PAD;     !- Layer #2

CONSTRUCTION,
    INT-FLOOR-UNDERSIDE,     !- Name
    Std CP02 CARPET PAD,     !- Outside Layer
    Std MAT-CC05 4  MW CONCRETE;  !- Layer #2

CONSTRUCTION,
    INT-FLOOR-SLAB,          !- Name
    Std MAT-CC05 4  MW CONCRETE;  !- Outside Layer

CONSTRUCTION,
    DropCeiling,             !- Name
    Std AC02;                !- Outside Layer

CONSTRUCTION,
    Raised-Floor-TopSide  ,  !- Name